!!>>>>>>>>>>>>>>>>>>>>>>>>>>>>>>>>>>>>>>>>>>>>>>>>>>>>>>>>>>>>>>>>>>>>>>
!! NEMO/OCE  Configuration namelist : overwrite default values defined in SHARED/namelist_ref
!!>>>>>>>>>>>>>>>>>>>>>>>>>>>>>>>>>>>>>>>>>>>>>>>>>>>>>>>>>>>>>>>>>>>>>>
!!          Generated from app/nemo/rose-app.conf                     !!
!!======================================================================
!-----------------------------------------------------------------------
&nampar
!-----------------------------------------------------------------------
   rn_amax_s = 0.997
   rn_amax_n = 0.997
   nlay_s = 1
   nlay_i = 4
   ln_virtual_itd = .false.
   ln_icethd = .true.
   ln_icedyn = .true.
   jpl = 5
   cn_icerst_outdir = ./
   cn_icerst_out = 'restart_ice'
   cn_icerst_indir = '.'
   cn_icerst_in = 'restart_ice'
/
!-----------------------------------------------------------------------
&namitd
!-----------------------------------------------------------------------
   rn_himin = 0.1
   rn_himean = 2.0
   rn_himax = 99.0
   rn_catbnd = 0.0,0.45,1.1,2.1,3.7,6.0
   ln_cat_usr = .false.
   ln_cat_hfn = .true.
/
!-----------------------------------------------------------------------
&namdyn
!-----------------------------------------------------------------------
   rn_vice = 0.5
   rn_uice = 0.5
   rn_lf_tensile = 0.05
   rn_lf_relax = 1.0e-5
   rn_lf_depfra = 0.125
   rn_lf_bfr = 15.0
   rn_ishlat = 2.0
   ln_landfast_l16 = .false.
   ln_dynrhgadv = .false.
   ln_dynall = .true.
   ln_dynadv2d = .false.
   ln_dynadv1d = .false.
/
!-----------------------------------------------------------------------
&namdyn_rdgrft
!-----------------------------------------------------------------------
   rn_pstar = 2.0e+4
   rn_porordg = 0.3
   rn_hstar = 25.0
   rn_hraft = 0.75
   rn_gstar = 0.15
   rn_fsnwrft = 0.5
   rn_fsnwrdg = 0.5
   rn_fpndrft = 1.0
   rn_fpndrdg = 1.0
   rn_csrdg = 0.5
   rn_crhg = 20.0
   rn_craft = 5.0
   rn_astar = 0.03
   ln_str_h79 = .true.
   ln_ridging = .true.
   ln_rafting = .true.
   ln_partf_lin = .false.
   ln_partf_exp = .true.
/
!-----------------------------------------------------------------------
&namdyn_rhg
!-----------------------------------------------------------------------
   rn_relast = 0.333
   rn_ecc = 2.0
   rn_creepl = 2.0e-9
   nn_rhg_chkcvg = 0
   nn_nevp = 120
   ln_rhg_evp = .true.
   ln_aevp = .false.
/
!-----------------------------------------------------------------------
&namdyn_adv
!-----------------------------------------------------------------------
   nn_umx = 5
   ln_adv_umx = .false.
   ln_adv_pra = .true.
/
!-----------------------------------------------------------------------
&namsbc
!-----------------------------------------------------------------------
   rn_snwblow = 0.66
   rn_cio = 1.0e-2
   nn_snwfra = 2
   nn_qtrice = 0
   nn_flxdist = -1
   ln_cndflx = .false.
   ln_cndemulate = .false.
/
!-----------------------------------------------------------------------
&namthd
!-----------------------------------------------------------------------
   ln_leadhfx = .false.
   ln_iceds = .true.
   ln_icedo = .true.
   ln_icedh = .true.
   ln_iceda = .true.
/
!-----------------------------------------------------------------------
&namthd_zdf
!-----------------------------------------------------------------------
   rn_kappa_smlt = 7.0
   rn_kappa_sdry = 10.0
   rn_kappa_s = 10.0
   rn_kappa_i = 1.0
   rn_cnd_s = 0.5
   ln_zdf_chkcvg = .false.
   ln_zdf_bl99 = .true.
   ln_cndi_u64 = .false.
   ln_cndi_p07 = .true.
/
!-----------------------------------------------------------------------
&namthd_da
!-----------------------------------------------------------------------
   rn_dmin = 10.0
   rn_beta = 1.2
/
!-----------------------------------------------------------------------
&namthd_do
!-----------------------------------------------------------------------
   rn_vfraz = 0.417
   rn_maxfraz = 1.0
   rn_hinew = 0.1
   rn_cfraz = 5.0
   ln_frazil = .false.
/
!-----------------------------------------------------------------------
&namthd_sal
!-----------------------------------------------------------------------
   rn_time_gd = 1.73e+6
   rn_time_fl = 8.64e+5
   rn_simin = 0.1
   rn_simax = 20.0
   rn_sal_gd = 5.0
   rn_sal_fl = 2.0
   rn_icesal = 4.0
   nn_icesal = 2
/
!-----------------------------------------------------------------------
&namthd_pnd
!-----------------------------------------------------------------------
   rn_pnd_flush = 0.01
   rn_hpnd = 0.05
   rn_apnd_min = 0.15
   rn_apnd_max = 0.5
   rn_apnd = 0.2
   ln_pnd_topo = .true.
   ln_pnd_lids = .true.
   ln_pnd_lev = .false.
   ln_pnd_cst = .false.
   ln_pnd_alb = .true.
   ln_pnd = .true.
/
!-----------------------------------------------------------------------
&namini
!-----------------------------------------------------------------------
   sn_tsu = 'Ice_initialization',-12,'tsu',.false.,.true.,'yearly','','',''
   sn_tms = 'NOT USED',-12,'tms',.false.,.true.,'yearly','','',''
   sn_tmi = 'Ice_initialization',-12,'tmi',.false.,.true.,'yearly','','',''
   sn_smi = 'Ice_initialization',-12,'smi',.false.,.true.,'yearly','','',''
   sn_hts = 'Ice_initialization',-12,'hts',.false.,.true.,'yearly','','',''
   sn_hti = 'Ice_initialization',-12,'hti',.false.,.true.,'yearly','','',''
   sn_hpd = 'NOT USED',-12,'hpd',.false.,.true.,'yearly','','',''
   sn_hld = 'NOT USED',-12,'hld',.false.,.true.,'yearly','','',''
   sn_ati = 'Ice_initialization',-12,'ati',.false.,.true.,'yearly','','',''
   sn_apd = 'NOT USED',-12,'apd',.false.,.true.,'yearly','','',''
   rn_tsu_ini_s = 270.0
   rn_tsu_ini_n = 270.0
   rn_tms_ini_s = 270.0
   rn_tms_ini_n = 270.0
   rn_tmi_ini_s = 270.0
   rn_tmi_ini_n = 270.0
   rn_thres_sst = 2.0
   rn_smi_ini_s = 6.3
   rn_smi_ini_n = 6.3
   rn_hts_ini_s = 0.3
   rn_hts_ini_n = 0.3
   rn_hti_ini_s = 1.0
   rn_hti_ini_n = 3.0
   rn_hpd_ini_s = 0.05
   rn_hpd_ini_n = 0.05
   rn_hld_ini_s = 0.0
   rn_hld_ini_n = 0.0
   rn_ati_ini_s = 0.9
   rn_ati_ini_n = 0.9
   rn_apd_ini_s = 0.2
   rn_apd_ini_n = 0.2
   nn_iceini_file = 2
   ln_iceini = .true.
   cn_dir = './'
/
!-----------------------------------------------------------------------
&namalb
!-----------------------------------------------------------------------
   rn_alb_smlt = 0.75
   rn_alb_sdry = 0.87
   rn_alb_imlt = 0.50
   rn_alb_idry = 0.70
   rn_alb_dpnd = 0.36
/
!-----------------------------------------------------------------------
&namdia
!-----------------------------------------------------------------------
   rn_icechk_glo = 1.0
   rn_icechk_cel = 100.0
   ln_icediahsb = .false.
   ln_icediachk = .false.
   ln_icectl = .false.
   jiceprt = 10
   iiceprt = 10
/
